/*--------------------------------*- C++ -*----------------------------------*\
| =========                 |                                                 |
| \\      /  F ield         | OpenFOAM: The Open Source CFD Toolbox           |
|  \\    /   O peration     | Version:  9.0                                   |
|   \\  /    A nd           | Web:      www.OpenFOAM.org                      |
|    \\/     M anipulation  |                                                 |
\*---------------------------------------------------------------------------*/
FoamFile
{
    version     9.0;
    format      ascii;
    class       dictionary;
    location    "system";
    object      fvSolution;
}
// * * * * * * * * * * * * * * * * * * * * * * * * * * * * * * * * * * * * * //

solvers
{

     "alpha.water.*"
    {
	reconstructionScheme isoAlpha;

        // isoAdvector parameters
        isoFaceTol      1e-6;
        surfCellTol     1e-6;
        nAlphaBounds    3;
        snapTol         1e-12;
        clip            true;
        gradAlphaNormal false;


        // MULES parameters
        nAlphaCorr      2;
        cAlpha          1;
        icAlpha         0;
        MULESCorr       yes;
        nLimiterIter    3;
        alphaApplyPrevCorr yes;
        solver          smoothSolver;
        smoother        symGaussSeidel;
        tolerance       1e-8;
        relTol          0;
        minIter         1;

        // parameters read by both isoAdvector and MULES
        nAlphaSubCycles 1;
    }

    pcorr
    {
        solver          PCG;
        preconditioner
        {
            preconditioner  GAMG;
            tolerance       1e-05;
            relTol          0;
            smoother        DICGaussSeidel;
            nPreSweeps      0;
            nPostSweeps     2;
            nFinestSweeps   2;
            cacheAgglomeration false;
            nCellsInCoarsestLevel 10;
            agglomerator    faceAreaPair;
            mergeLevels     1;
        }

        tolerance       1e-05;
        relTol          0;
        //maxIter         100;
		//minimize unnecessary computations
		maxIter         1;
		nSweeps         1;  
		nPreSweeps      0;
        nPostSweeps     1;
        nFinestSweeps   1;
    }

    pcorrFinal
    {
        solver          PCG;
        preconditioner
        {
            preconditioner  GAMG;
            tolerance       1e-05;
            relTol          0;
            smoother        DICGaussSeidel;
            nPreSweeps      0;
            nPostSweeps     2;
            nFinestSweeps   2;
            cacheAgglomeration false;
            nCellsInCoarsestLevel 10;
            agglomerator    faceAreaPair;
            mergeLevels     1;
        }

        tolerance       1e-05;
        relTol          0;
        //maxIter         100;
		//minimize unnecessary computations
		maxIter         1;
		nSweeps         1;  
		nPreSweeps      0;
        nPostSweeps     1;
        nFinestSweeps   1;
    }

    p_rgh
    {
        solver          GAMG;
        tolerance       1e-08;
        relTol          0.01;
        smoother        DIC;
        nPreSweeps      0;
        nPostSweeps     2;
        nFinestSweeps   2;
        cacheAgglomeration true;
        nCellsInCoarsestLevel 10;
        agglomerator    faceAreaPair;
        mergeLevels     1;
		//minimize unnecessary computations
		maxIter         1;
		nSweeps         1;  
		nPreSweeps      0;
        nPostSweeps     1;
        nFinestSweeps   1;
    }

    p_rghFinal
    {
        solver          PCG;
        preconditioner
        {
            preconditioner  GAMG;
            tolerance       2e-09;
            relTol          0;
            nVcycles        2;
            smoother        DICGaussSeidel;
            nPreSweeps      2;
            nPostSweeps     2;
            nFinestSweeps   2;
            cacheAgglomeration true;
            nCellsInCoarsestLevel 10;
            agglomerator    faceAreaPair;
            mergeLevels     1;
        }

        tolerance       2e-09;
        relTol          0;
        //maxIter         20;
		//minimize unnecessary computations
		maxIter         1;
		nSweeps         1;  
		nPreSweeps      0;
        nPostSweeps     1;
        nFinestSweeps   1;
    }

    U
    {
        solver          smoothSolver;
        smoother        GaussSeidel;
        tolerance       1e-06;
        relTol          0;
        nSweeps         1;
		//minimize unnecessary computations
		maxIter         1;
		nSweeps         1;  
		nPreSweeps      0;
        nPostSweeps     1;
        nFinestSweeps   1;
    }

    "(U)Final"
    {
        $U;
        relTol          0;
    }
}

PIMPLE
{
    momentumPredictor no;
    nCorrectors     0; //3;
    nNonOrthogonalCorrectors 0;
    pRefCell        1;
    pRefValue       0;
}

relaxationFactors
{
    fields
    {
    }
    equations
    {
        ".*" 1;
    }
}
// ************************************************************************* //
