FoamFile
{
    version     2.0;
    format      ascii;
    class       polyBoundaryMesh;
    location    "constant/polyMesh";
    object      boundary;
}

3         
(
    inlet
    {
        type patch;
        nFaces 1253;
        startFace 853567;
    }
    outlet
    {
        type patch;
        nFaces 1253;
        startFace 854820;
    }
    wall
    {
        type wall;
        nFaces 18090;
        startFace 856073;
    }
)
